744

AU 0.562163 2.212108 -1.3456
AU 1.352539 -0.27502 -2.1926
AU 4.08987 0.537926 -2.3256
AU 4.586587 -1.10634 0.015392
AU 0.016827 0.055965 -4.6996
AU 2.011435 1.994482 -3.7906
AU 3.375351 -2.29569 -2.3386
AU 3.247986 3.186865 -1.4296
AU 3.864043 -3.91481 0.024393
AU 5.287343 1.732035 0.036392
AU 4.656671 1.53395 -4.8246
AU 1.869454 1.341902 -6.4716
AU 0.816276 3.886091 -5.6006
AU 3.710168 4.157263 -4.0876
AU -0.97271 1.852433 -6.5416
AU 6.053255 -2.89263 -1.4986
AU 5.209012 4.578795 0.156393
AU 5.475081 -1.42572 -3.9096
AU 6.696579 -0.07874 -1.6556
AU 5.765032 2.871029 -2.5256
AU 8.496153 -2.08349 -0.0076
AU 3.679125 3.61256 -7.0056
AU 0.016827 0.055965 -8.6996
AU 5.959852 5.858576 2.738392
AU 7.537748 0.953452 -4.3286
AU 6.214532 -4.28371 -4.3396
AU 0.558067 2.214976 1.400392
AU -1.80119 1.933243 0.027392
AU -1.34029 4.340164 -1.4446
AU -0.84111 2.694176 -3.7836
AU -3.3376 2.404761 2.392392
AU -1.33971 4.340983 1.486392
AU -3.34169 2.407629 -2.3386
AU 1.16734 4.64375 0.020392
AU -2.80958 0.758113 -4.6706
AU 1.168647 4.615977 -2.8816
AU -2.41506 6.485636 -0.1026
AU -3.70078 5.242222 2.603392
AU -1.28239 5.355595 4.178392
AU -0.03745 6.781376 1.503391
AU -3.37119 3.531865 4.908392
AU -3.1835 3.575012 -4.9546
AU 3.261068 5.94276 -1.4716
AU -3.85669 5.108463 -2.6096
AU -1.31636 5.531979 -3.9346
AU 0.151383 6.801748 -1.3736
AU -1.57204 4.966335 -7.0306
AU -2.49072 7.932738 2.714393
AU -6.17514 4.39163 4.392392
AU 5.989342 5.837928 -2.6596
AU -2.49113 7.975749 -2.6816
AU -6.18087 4.395645 -4.3396
AU 2.507649 0.849864 0.031393
AU 1.350901 -0.27387 2.251391
AU 1.999394 2.001693 3.855392
AU -0.82227 2.680984 3.854392
AU 3.371255 -2.29283 2.393391
AU 4.079794 0.546202 2.390392
AU 0.016827 0.055966 4.763392
AU 3.237337 3.194322 1.495392
AU -2.80385 0.754099 4.732392
AU 1.157998 4.623434 2.931392
AU 4.470723 1.664153 5.012392
AU 5.522872 -1.21624 3.955392
AU 6.704341 -0.23677 1.507392
AU 5.803102 2.691776 2.670393
AU 5.949935 -2.99486 1.719391
AU -1.01684 2.057903 6.538392
AU 3.080036 6.06952 1.401391
AU 1.730737 1.196098 6.605392
AU 1.073101 3.858857 5.676392
AU 3.775312 4.264246 3.985392
AU -1.52043 4.9302 7.124392
AU 7.489002 0.944856 4.377392
AU 6.208798 -4.27969 4.392393
AU 2.145061 8.529722 0.008392
AU 3.691829 3.646394 7.096392
AU 0.016827 0.055966 8.765392
AU -2.47342 -0.73711 0.031393
AU -1.31667 0.386629 2.251391
AU -1.96573 -1.88976 3.855392
AU 0.856502 -2.56823 3.854392
AU -4.04614 -0.43427 2.390392
AU -3.20311 -3.08157 1.495392
AU 2.83751 -0.64216 4.732392
AU -1.12434 -4.5115 2.931392
AU -4.43706 -1.55222 5.012392
AU -5.48921 1.328181 3.955392
AU -6.67011 0.349526 1.507392
AU -5.76887 -2.57902 2.670393
AU -5.91628 3.106793 1.719391
AU 1.050501 -1.94597 6.538392
AU -3.0458 -5.95677 1.401391
AU -1.69708 -1.08416 6.605392
AU -1.03887 -3.7461 5.676392
AU -3.74165 -4.15231 3.985392
AU 1.554666 -4.81745 7.124392
AU -7.45477 -0.8321 4.377393
AU -2.1114 -8.41779 0.008393
AU -3.65817 -3.53446 7.096392
AU -0.52793 -2.09935 -1.3456
AU -1.31831 0.387776 -2.1926
AU -4.05621 -0.42599 -2.3256
AU -4.55235 1.219092 0.015392
AU -1.97778 -1.88255 -3.7906
AU -3.21375 -3.07411 -1.4296
AU -3.83038 4.026746 0.024392
AU -5.25368 -1.6201 0.036392
AU -4.62301 -1.42202 -4.8246
AU -1.83579 -1.22997 -6.4716
AU -0.78204 -3.77334 -5.6006
AU -3.67594 -4.04451 -4.0876
AU 1.006373 -1.7405 -6.5416
AU -6.0196 3.004566 -1.4986
AU -5.17478 -4.46604 0.156393
AU -5.44142 1.537652 -3.9096
AU -6.66235 0.191496 -1.6556
AU -5.73137 -2.75909 -2.5256
AU -8.46192 2.196243 -0.0076
AU -3.64489 -3.49981 -7.0056
AU -5.92619 -5.74664 2.738393
AU -7.50409 -0.84152 -4.3286
AU -0.52383 -2.10222 1.400392
AU 1.835424 -1.82049 0.027392
AU 1.373944 -4.22823 -1.4446
AU 0.875343 -2.58142 -3.7836
AU 1.37337 -4.22905 1.486392
AU -1.13311 -4.531 0.020392
AU 2.843244 -0.64618 -4.6706
AU -1.13499 -4.50404 -2.8816
AU 2.448723 -6.3737 -0.1026
AU 3.734435 -5.13029 2.603393
AU 1.31662 -5.24284 4.178392
AU 0.07168 -6.66862 1.503392
AU 3.40485 -3.41993 4.908392
AU 3.217158 -3.46308 -4.9546
AU -3.22684 -5.83001 -1.4716
AU 3.890353 -4.99653 -2.6096
AU 1.350594 -5.41922 -3.9346
AU -0.11772 -6.68981 -1.3736
AU 1.606273 -4.85358 -7.0306
AU 2.524956 -7.81998 2.714394
AU -5.95568 -5.72599 -2.6596
AU 2.524785 -7.86381 -2.6816
C -3.38178 -0.12182 -14.6756
C -3.12217 -0.2096 -13.1846
O -3.46475 -1.16609 -15.3246
C -2.95588 -1.45403 -12.5656
O -3.51459 0.973423 -15.2716
C -2.7039 -1.53526 -11.2046
C -2.6001 -0.35664 -10.4626
S -2.2466 -0.39052 -8.7016
C -2.74206 0.89639 -11.0776
C -2.99806 0.95967 -12.4376
C -4.7309 5.118742 -13.3416
C -4.13539 4.591893 -12.0506
O -5.10392 4.31054 -14.1946
C -3.99098 3.215072 -11.8466
O -4.85656 6.344495 -13.5736
C -3.43193 2.732057 -10.6736
C -2.99834 3.640689 -9.7046
S -2.24014 3.082932 -8.1746
C -3.1171 5.02275 -9.9106
C -3.68182 5.488971 -11.0856
C 4.733174 8.494954 -11.4346
C 4.068914 7.713662 -10.3166
O 4.549861 8.133779 -12.5976
C 3.284507 6.591669 -10.6056
O 5.460627 9.492021 -11.2166
C 2.688414 5.867633 -9.5836
C 2.896964 6.26485 -8.2606
S 2.17788 5.354702 -6.8886
C 3.700786 7.37447 -7.9596
C 4.284753 8.089906 -8.9926
C 7.615536 1.85607 -12.7206
C 6.982269 1.847802 -11.3426
O 7.635133 0.808351 -13.3686
C 6.456403 0.664413 -10.8116
O 8.117706 2.888806 -13.2236
C 5.890722 0.651549 -9.5456
C 5.870569 1.832719 -8.8006
S 5.178897 1.878774 -7.1426
C 6.416179 3.018154 -9.3146
C 6.973174 3.015127 -10.5826
C 11.04571 -1.26846 -10.2066
C 10.00768 -1.16788 -9.1046
O 11.11209 -2.30865 -10.8636
C 9.162084 -2.24825 -8.8276
O 11.83722 -0.33334 -10.4716
C 8.22301 -2.16324 -7.8116
C 8.145511 -0.99075 -7.0556
S 6.971328 -0.82657 -5.7056
C 9.004379 0.087647 -7.3106
C 9.934276 -0.01046 -8.3326
C 13.68684 2.920144 -5.4566
C 12.28939 2.880524 -4.8686
O 13.89739 2.336904 -6.5216
C 11.26894 2.172851 -5.5146
O 14.63363 3.52436 -4.8986
C 9.995279 2.123464 -4.9706
C 9.748288 2.774951 -3.7596
S 8.127022 2.726023 -2.9866
C 10.77004 3.467061 -3.0936
C 12.03666 3.511614 -3.6526
C 11.48037 -9.08424 -3.2806
C 10.42092 -8.02745 -3.0346
O 11.95299 -9.68374 -2.3146
C 10.01061 -7.72428 -1.7316
O 11.8911 -9.36939 -4.4306
C 9.053072 -6.7486 -1.5036
C 8.516245 -6.05775 -2.5926
S 7.293885 -4.76114 -2.3656
C 8.938192 -6.33733 -3.9016
C 9.891722 -7.31874 -4.1126
C 15.04785 0.104255 -1.9306
C 13.54554 0.07702 -1.7306
O 15.49408 0.012766 -3.0756
C 12.68647 -0.07589 -2.8256
O 15.85161 0.216542 -0.9746
C 11.31286 -0.11633 -2.6426
C 10.79848 -0.02107 -1.3466
S 9.03016 -0.0952 -1.0376
C 11.65148 0.109233 -0.2416
C 13.021 0.152544 -0.4416
C 12.34165 8.114017 2.418391
C 11.14602 7.182307 2.452392
O 12.40329 8.965681 1.530392
C 10.14665 7.275347 1.476392
O 13.26869 8.048432 3.260393
C 9.060559 6.414649 1.497392
C 8.986118 5.440101 2.495391
S 7.620624 4.274524 2.562391
C 9.994659 5.323548 3.463392
C 11.07043 6.193914 3.432393
C 6.439705 12.52738 5.555392
C 5.885565 11.27223 4.909392
O 5.819119 13.58329 5.425392
C 4.703256 11.32368 4.161392
O 7.507 12.52961 6.214392
C 4.20271 10.17994 3.558392
C 4.90487 8.979015 3.693392
S 4.326282 7.46753 2.913391
C 6.102334 8.923057 4.421392
C 6.586661 10.07327 5.022392
C -10.5031 4.806027 9.757392
C -9.50952 4.220138 8.772392
O -11.6824 4.457363 9.686392
C -9.93458 3.320189 7.788392
O -10.1677 5.632012 10.63839
C -9.03055 2.794608 6.877393
C -7.69236 3.190683 6.944392
S -6.47589 2.570847 5.777392
C -7.26156 4.111031 7.912393
C -8.17674 4.622441 8.817393
C -5.8809 5.952063 12.58039
C -5.3388 5.455287 11.25439
O -7.06603 5.746682 12.84839
C -6.17746 4.799772 10.34539
O -5.16866 6.563028 13.41139
C -5.6868 4.358547 9.126393
C -4.34675 4.593398 8.809392
S -3.65482 4.073499 7.235392
C -3.50399 5.270458 9.703392
C -4.0085 5.700625 10.91939
C -2.13463 13.59317 5.763392
C -1.9234 12.11828 5.478391
O -3.11608 14.15464 5.275392
C -2.81629 11.42017 4.656392
O -1.34652 14.25844 6.476391
C -2.61732 10.07594 4.382392
C -1.50211 9.431795 4.924391
S -1.16999 7.69891 4.586392
C -0.58955 10.12834 5.730392
C -0.80523 11.46962 5.998392
C -7.74305 12.76652 1.646392
C -6.78757 11.60308 1.458392
O -8.85574 12.70819 1.121392
C -7.15933 10.49856 0.682392
O -7.44044 13.78274 2.315392
C -6.28159 9.442046 0.497391
C -5.01489 9.502411 1.081392
S -3.81948 8.179512 0.857391
C -4.62437 10.61454 1.841392
C -5.51456 11.66025 2.021391
C -8.04623 12.28297 -3.7926
C -7.24405 11.04009 -3.4586
O -8.9909 12.1839 -4.5776
C -7.55815 9.812189 -4.0526
O -7.78392 13.40553 -3.2996
C -6.81616 8.678596 -3.7596
C -5.7382 8.783226 -2.8766
S -4.71879 7.358931 -2.4766
C -5.40157 10.01366 -2.2946
C -6.15519 11.13587 -2.5936
C -1.52908 13.40843 -6.4416
C -1.25137 12.20805 -5.5576
O -2.1704 13.24221 -7.4806
C -1.69524 10.93429 -5.9326
O -1.1293 14.56169 -6.1546
C -1.42996 9.832963 -5.1326
C -0.69656 10.01038 -3.9566
S -0.29304 8.621815 -2.8906
C -0.22729 11.27857 -3.5856
C -0.50502 12.36909 -4.3926
C -9.34355 4.744832 -10.6406
C -8.3084 4.518089 -9.5556
O -9.68162 3.791293 -11.3436
C -7.73364 3.253769 -9.3776
O -9.86639 5.865368 -10.8476
C -6.77623 3.0485 -8.3966
C -6.38097 4.125572 -7.5986
S -5.12446 3.93427 -6.3286
C -6.93385 5.400209 -7.7846
C -7.89249 5.588029 -8.7666
C -1.08897 10.6111 -10.6996
C -1.07305 9.669721 -9.5106
O -1.5138 10.19442 -11.7786
C -1.51111 8.346723 -9.6486
O -0.6846 11.79532 -10.6236
C -1.48321 7.479972 -8.5666
C -0.99497 7.940148 -7.3416
S -0.90533 6.861699 -5.9076
C -0.53208 9.256754 -7.1996
C -0.5708 10.11154 -8.2886
C 7.040405 11.05079 -7.5546
C 6.438679 9.874139 -6.8126
O 6.717327 11.23795 -8.72861
C 5.55133 9.006122 -7.4596
O 7.855733 11.83862 -7.01861
C 5.011633 7.921535 -6.7866
C 5.378782 7.696195 -5.4576
S 4.738028 6.292939 -4.5366
C 6.284888 8.547415 -4.8076
C 6.811478 9.628973 -5.4926
C 12.23016 8.188418 -2.9426
C 10.97419 7.517478 -2.4236
O 12.35381 8.354542 -4.1576
C 9.988349 7.073674 -3.3126
O 13.14768 8.579965 -2.1816
C 8.845433 6.445646 -2.8406
C 8.701056 6.246428 -1.4646
S 7.258846 5.414127 -0.7896
C 9.694106 6.665655 -0.5676
C 10.82735 7.295569 -1.0556
C 10.95236 -8.62663 5.302393
C 9.682479 -8.00113 4.759392
O 11.42225 -8.19266 6.355392
C 9.073773 -6.93522 5.432392
O 11.5406 -9.56833 4.719392
C 7.92054 -6.35234 4.928392
C 7.385515 -6.83226 3.730393
S 5.910507 -6.1022 3.009394
C 8.001758 -7.88391 3.037393
C 9.14934 -8.45917 3.555394
C 13.06262 -7.41732 0.712393
C 11.78195 -6.60848 0.776391
O 13.05222 -8.57588 1.131392
C 10.62045 -7.16368 1.325393
O 14.13056 -6.95043 0.248392
C 9.452576 -6.42039 1.398392
C 9.455791 -5.10298 0.933392
S 7.984511 -4.07644 1.025393
C 10.62073 -4.53067 0.403393
C 11.77886 -5.28788 0.332392
C 13.73225 3.668424 4.146392
C 12.44768 2.984545 3.719392
O 13.91854 4.839326 3.810391
C 11.5073 3.667424 2.938392
O 14.60973 3.085747 4.826392
C 10.3394 3.03858 2.534392
C 10.12228 1.708587 2.902391
S 8.644267 0.82689 2.388391
C 11.06979 1.009732 3.665392
C 12.22942 1.652914 4.065392
C 10.1783 1.016248 11.10639
C 9.204729 1.011877 9.944392
O 9.791602 1.429849 12.20139
C 7.899594 1.491145 10.11039
O 11.36154 0.617445 10.99339
C 7.012614 1.500608 9.045392
C 7.445187 1.042679 7.798392
S 6.3552 1.055119 6.370392
C 8.757122 0.581843 7.616392
C 9.62944 0.574102 8.691392
C 5.891722 3.133903 13.63139
C 5.253242 2.752067 12.31039
O 5.182418 3.622018 14.51239
C 3.888105 2.97304 12.09239
O 7.114813 2.973328 13.85739
C 3.305338 2.637645 10.88039
C 4.103768 2.092007 9.872392
S 3.417028 1.66217 8.268392
C 5.476527 1.888893 10.07239
C 6.042088 2.224125 11.29039
C 4.756832 9.541684 10.56039
C 4.538697 8.555441 9.429391
O 3.811945 10.24602 10.92139
C 3.293288 8.467957 8.795392
O 5.861337 9.666791 11.13839
C 3.096466 7.57666 7.751392
C 4.163815 6.780464 7.328392
S 3.98457 5.626599 5.963392
C 5.421923 6.877367 7.942391
C 5.600721 7.769076 8.987392
C -3.99583 0.807433 14.37839
C -3.42857 0.962025 12.98139
O -4.94116 0.036176 14.55139
C -3.98755 0.259612 11.90739
O -3.54008 1.435639 15.36339
C -3.47944 0.411672 10.62639
C -2.41374 1.290313 10.41939
S -1.72661 1.555075 8.780392
C -1.86254 2.016486 11.48539
C -2.37819 1.850172 12.75939
C -0.20063 10.36996 10.97239
C -0.02474 9.217689 10.00239
O -1.3084 10.90269 11.06339
C -1.0957 8.788315 9.210392
O 0.738265 10.79902 11.68339
C -0.93257 7.745081 8.312392
C 0.320847 7.139658 8.196392
S 0.607638 5.802304 7.031392
C 1.4059 7.578698 8.968393
C 1.226059 8.618983 9.864392
C 2.31337 14.68909 3.11839
C 1.992028 13.22943 2.862391
O 1.607067 15.5511 2.592391
C 0.928041 12.87452 2.024392
O 3.270939 15.04893 3.843391
C 0.642026 11.54028 1.777391
C 1.441787 10.55545 2.362392
S 1.143589 8.809793 2.060391
C 2.52445 10.90216 3.184392
C 2.794983 12.2387 3.424391
C 3.662936 13.83567 -4.4756
C 3.507335 12.45406 -3.8706
O 3.070668 14.09168 -5.5256
C 2.726963 11.48428 -4.5106
O 4.370466 14.72583 -3.9466
C 2.5953 10.21531 -3.9666
C 3.268912 9.913331 -2.7806
S 3.165544 8.280288 -2.0386
C 4.072876 10.87147 -2.1446
C 4.189711 12.13495 -2.6986
C -11.3656 8.630322 4.048391
C -10.0095 8.000635 3.798392
O -12.3658 8.089194 3.572392
C -9.89845 6.841243 3.022391
O -11.5063 9.681088 4.719392
C -8.65723 6.272441 2.780392
C -7.51637 6.883593 3.308391
S -5.87627 6.214953 3.009393
C -7.61656 8.05855 4.068392
C -8.86368 8.61195 4.304392
C -13.6621 5.948558 -0.1286
C -12.2501 5.482382 0.169391
O -14.4082 5.203816 -0.7666
C -11.8008 4.241183 -0.2936
O -14.0963 7.063184 0.248391
C -10.506 3.820409 -0.0346
C -9.64897 4.660822 0.680392
S -7.95085 4.18838 1.025393
C -10.0829 5.916929 1.128392
C -11.382 6.321155 0.866391
C -13.7373 -3.52814 4.077392
C -12.444 -2.85278 3.665392
O -13.9716 -4.66299 3.658392
C -11.5486 -3.50051 2.805393
O -14.576 -2.97381 4.827392
C -10.3731 -2.87822 2.415393
C -10.1023 -1.58829 2.878392
S -8.61061 -0.71495 2.388391
C -11.0039 -0.92156 3.721392
C -12.1717 -1.559 4.105392
C -11.1687 -1.29814 10.03539
C -9.95619 -1.24014 9.126393
O -12.0278 -2.15543 9.822393
C -9.83228 -2.13017 8.052392
O -11.3278 -0.50551 10.99339
C -8.73229 -2.06904 7.211392
C -7.75735 -1.09511 7.439392
S -6.32154 -0.94318 6.370392
C -7.88355 -0.18395 8.498392
C -8.98641 -0.26138 9.333392
C -6.98179 -3.49008 12.77839
C -6.07311 -3.03619 11.65239
O -7.64747 -4.51575 12.62339
C -6.01357 -3.75663 10.45439
O -7.08058 -2.86057 13.85839
C -5.19469 -3.33509 9.418392
C -4.44256 -2.16852 9.581392
S -3.38337 -1.55023 8.268392
C -4.51242 -1.42621 10.76939
C -5.33196 -1.86438 11.79639
C -5.53107 -9.83212 9.951393
C -5.11181 -8.77308 8.950393
O -5.58178 -11.0064 9.584393
C -4.81415 -9.12555 7.628393
O -5.82768 -9.55485 11.13839
C -4.44495 -8.15719 6.708393
C -4.39331 -6.8212 7.113392
S -3.95034 -5.51384 5.963392
C -4.71203 -6.4552 8.429393
C -5.07402 -7.43593 9.338393
C 2.495174 -1.66107 14.81939
C 2.300446 -1.63582 13.31539
O 1.557758 -2.02526 15.53039
C 1.070975 -1.99693 12.75339
O 3.57374 -1.3237 15.36339
C 0.886489 -1.96053 11.37939
C 1.941145 -1.54049 10.56539
S 1.760272 -1.44314 8.780392
C 3.1698 -1.15439 11.12039
C 3.339621 -1.20128 12.49439
C -0.40583 -10.7119 10.46539
C -0.41844 -9.4677 9.599392
O -0.09058 -11.7872 9.952393
C -0.10207 -9.54762 8.238392
O -0.70461 -10.687 11.68339
C -0.12747 -8.41405 7.442392
C -0.49235 -7.1917 8.013391
S -0.57341 -5.68955 7.031392
C -0.83355 -7.10539 9.371392
C -0.79807 -8.24724 10.15439
C -2.20352 -14.5694 3.237394
C -1.90159 -13.1096 2.955392
O -1.40243 -15.4233 2.853392
C -0.747 -12.7473 2.252393
O -3.23728 -14.937 3.843393
C -0.47794 -11.4146 1.981392
C -1.38445 -10.4393 2.404392
S -1.10993 -8.69786 2.060392
C -2.55608 -10.7945 3.089392
C -2.80802 -12.1306 3.356393
C -3.29606 -14.0742 -3.5006
C -3.24179 -12.6107 -3.1086
O -2.27802 -14.7578 -3.3766
C -2.05038 -12.0459 -2.6386
O -4.33623 -14.613 -3.9466
C -1.99555 -10.7036 -2.2946
C -3.14196 -9.91921 -2.4396
S -3.13131 -8.16753 -2.0386
C -4.33443 -10.4698 -2.9316
C -4.37402 -11.813 -3.2666
C 3.507341 -1.61903 -14.2736
C 3.180456 -1.11302 -12.8816
O 3.741802 -2.81841 -14.4266
C 3.170913 -1.9914 -11.7926
O 3.548818 -0.86067 -15.2716
C 2.886622 -1.52743 -10.5166
C 2.628098 -0.16714 -10.3316
S 2.280837 0.503278 -8.7016
C 2.658207 0.72491 -11.4136
C 2.938808 0.24521 -12.6826
C 4.760318 -6.59939 -12.3816
C 4.12185 -5.71896 -11.3246
O 5.166174 -7.71615 -12.0556
C 4.020448 -6.1619 -10.0006
O 4.890791 -6.23174 -13.5736
C 3.451113 -5.35185 -9.0306
C 2.995798 -4.08083 -9.3886
S 2.273799 -2.971 -8.1746
C 3.114814 -3.6197 -10.7086
C 3.681363 -4.44245 -11.6666
C -4.40017 -9.57168 -10.5246
C -3.83696 -8.51454 -9.5956
O -3.82497 -10.6593 -10.6016
C -2.6714 -8.76424 -8.8596
O -5.42697 -9.38009 -11.2176
C -2.14761 -7.79304 -8.0216
C -2.78758 -6.55386 -7.9346
S -2.14422 -5.24277 -6.8886
C -3.94193 -6.28638 -8.6846
C -4.45654 -7.2689 -9.5146
C -7.46547 -3.56891 -12.4736
C -6.90121 -3.14487 -11.1316
O -7.30793 -4.73519 -12.8396
C -6.19467 -4.0571 -10.3396
O -8.08405 -2.77687 -13.2236
C -5.66531 -3.66722 -9.1186
C -5.83093 -2.34512 -8.6996
S -5.14524 -1.76684 -7.1426
C -6.51658 -1.417 -9.4966
C -7.04439 -1.82384 -10.7116
C -10.9857 -0.40569 -10.0476
C -9.98552 -0.09649 -8.9506
O -10.9927 -1.53492 -10.5406
C -9.07483 -1.07109 -8.5266
O -11.8029 0.446091 -10.4716
C -8.15004 -0.78596 -7.5336
C -8.12881 0.494406 -6.9756
S -6.93767 0.938509 -5.7056
C -9.02221 1.484981 -7.4096
C -9.94241 1.181994 -8.3986
C -13.6233 -4.19517 -4.9776
C -12.2433 -3.82835 -4.4656
O -13.7884 -5.30275 -5.4906
C -11.1769 -4.72523 -4.5976
O -14.5999 -3.41242 -4.8986
C -9.91214 -4.38518 -4.1436
C -9.71248 -3.12719 -3.5686
S -8.09279 -2.61327 -2.9866
C -10.7704 -2.21303 -3.4536
C -12.0287 -2.56988 -3.9076
C -11.7323 8.266961 -4.7176
C -10.6394 7.399161 -4.1236
O -12.5257 7.758001 -5.5116
C -10.5229 6.054047 -4.4926
O -11.8574 9.481326 -4.4306
C -9.51617 5.263675 -3.9616
C -8.6065 5.834062 -3.0676
S -7.26023 4.87308 -2.3656
C -8.70069 7.18671 -2.7096
C -9.71553 7.962008 -3.2446
C -14.9656 -0.92723 -1.3876
C -13.4739 -0.67282 -1.2876
O -15.3529 -1.98063 -1.8956
C -12.5607 -1.60892 -1.7866
O -15.8171 -0.10518 -0.9746
C -11.1967 -1.37129 -1.7096
C -10.7477 -0.1756 -1.1426
S -8.99593 0.207959 -1.0376
C -11.6563 0.779253 -0.6616
C -13.0152 0.524579 -0.7416
C -12.1014 -8.23707 2.818392
C -10.9584 -7.24284 2.768393
O -11.9081 -9.38197 2.406392
C -9.71638 -7.61691 2.242391
O -13.2358 -7.93592 3.260393
C -8.67379 -6.70501 2.182393
C -8.88644 -5.40125 2.638393
S -7.58697 -4.16259 2.562392
C -10.1342 -5.01096 3.145392
C -11.1632 -5.93483 3.203392
C -6.62986 -12.4491 5.286393
C -6.01936 -11.1919 4.698393
O -6.28643 -13.5417 4.832392
C -5.10134 -11.2756 3.644393
O -7.47277 -12.4168 6.214393
C -4.55213 -10.1269 3.096392
C -4.94232 -8.88321 3.598392
S -4.29205 -7.35478 2.913392
C -5.87894 -8.78772 4.637392
C -6.41447 -9.94481 5.178393
C 9.318202 -5.97594 9.874392
C 8.624759 -5.12171 8.831393
O 9.000338 -7.16214 9.973392
C 7.626039 -5.66759 8.017392
O 10.20197 -5.51926 10.63839
C 6.980348 -4.88464 7.073392
C 7.327726 -3.53599 6.959392
S 6.510119 -2.45809 5.777392
C 8.311293 -2.97339 7.787392
C 8.950264 -3.77117 8.721392
C 4.507211 -6.93123 12.48539
C 4.311023 -6.21765 11.16139
O 3.962352 -8.02319 12.65539
C 3.505557 -6.78043 10.16539
O 5.202888 -6.45027 13.41139
C 3.312802 -6.12297 8.960392
C 3.92019 -4.88069 8.761392
S 3.688475 -3.96156 7.235392
C 4.711157 -4.29677 9.763392
C 4.897193 -4.96906 10.95939
C 2.226464 -13.4487 5.867392
C 2.000068 -11.9815 5.560393
O 3.279758 -13.9738 5.503393
C 2.961456 -11.2483 4.855393
O 1.381 -14.147 6.476392
C 2.749298 -9.91078 4.560392
C 1.553221 -9.30888 4.961392
S 1.203649 -7.58697 4.586393
C 0.57381 -10.0416 5.647392
C 0.803254 -11.3754 5.938392
C 7.84628 -12.4994 2.067392
C 6.865734 -11.377 1.786392
O 9.052961 -12.2493 2.048393
C 7.328779 -10.0898 1.489392
O 7.474104 -13.6708 2.315393
C 6.434485 -9.06568 1.218393
C 5.064362 -9.34173 1.228392
S 3.853142 -8.06758 0.857392
C 4.59206 -10.6334 1.502393
C 5.498317 -11.644 1.775392
C 8.143526 -12.2998 -2.6076
C 7.299811 -11.0413 -2.5436
O 9.188367 -12.3453 -1.9556
C 7.716541 -9.94751 -1.7766
O 7.818153 -13.2927 -3.2996
C 6.953998 -8.79098 -1.7286
C 5.772265 -8.72651 -2.4716
S 4.752445 -7.247 -2.4766
C 5.358566 -9.80898 -3.2616
C 6.129304 -10.959 -3.2946
C 1.770488 -13.9656 -5.1696
C 1.410952 -12.6188 -4.5726
O 2.696869 -14.6057 -4.6676
C 2.133421 -12.1066 -3.4896
O 1.16296 -14.4497 -6.1536
C 1.814666 -10.8689 -2.9526
C 0.77287 -10.1321 -3.5196
S 0.327271 -8.50906 -2.8906
C 0.057202 -10.626 -4.6206
C 0.38505 -11.8663 -5.1426
C 9.21213 -6.42904 -10.0456
C 8.180886 -5.80095 -9.1286
O 9.379821 -7.64882 -9.9996
C 7.453708 -6.5919 -8.2316
O 9.900051 -5.75343 -10.8476
C 6.521092 -6.01823 -7.3826
C 6.33024 -4.63452 -7.4216
S 5.158114 -3.82233 -6.3286
C 7.070774 -3.82973 -8.3006
C 7.994949 -4.42069 -9.1466
C 1.349321 -11.6137 -9.5426
C 1.241759 -10.4214 -8.6126
O 2.085844 -12.5494 -9.2226
C 1.985709 -10.3771 -7.4276
O 0.717438 -11.6828 -10.6236
C 1.900088 -9.28075 -6.5836
C 1.07396 -8.21154 -6.9416
S 0.939563 -6.74894 -5.9076
C 0.343201 -8.237 -8.1386
C 0.435293 -9.34158 -8.9686
C -6.64449 -11.5599 -6.6236
C -6.14867 -10.2346 -6.0786
O -5.85717 -12.5067 -6.6816
C -4.81756 -10.0875 -5.6726
O -7.82207 -11.7266 -7.0186
C -4.35895 -8.87297 -5.1886
C -5.24053 -7.79056 -5.1276
S -4.70437 -6.181 -4.5366
C -6.57099 -7.92104 -5.5536
C -7.01452 -9.14376 -6.0306
C -11.9296 -8.8774 -2.2466
C -10.7457 -8.00951 -1.8656
O -11.719 -10.0271 -2.6346
C -9.44116 -8.5018 -1.9776
O -13.1134 -8.46721 -2.1816
C -8.3568 -7.70459 -1.6436
C -8.58543 -6.39576 -1.2106
S -7.22461 -5.30137 -0.7896
C -9.88876 -5.88601 -1.1166
C -10.9606 -6.69682 -1.4496
