1250

C -29.5199 0.0 0.0
C -28.29 -2.13042 0.0
C -27.06 -4.26084 0.0
C -25.8299 -6.39126 0.0
C -24.6 -8.52169 0.0
C -23.3699 -10.6521 0.0
C -22.14 -12.7825 0.0
C -20.91 -14.9129 0.0
C -19.68 -17.0433 0.0
C -18.45 -19.1738 0.0
C -17.22 -21.3042 0.0
C -15.99 -23.4346 0.0
C -14.76 -25.565 0.0
C -13.53 -27.6954 0.0
C -12.3 -29.8259 0.0
C -11.07 -31.9563 0.0
C -9.84 -34.0867 0.0
C -8.61 -36.2171 0.0
C -7.38 -38.3476 0.0
C -6.15 -40.478 0.0
C -4.92 -42.6084 0.0
C -3.69 -44.7388 0.0
C -2.46 -46.8692 0.0
C -1.23 -48.9997 0.0
C -0.0 -51.1301 0.0
C -28.29 2.130422 0.0
C -27.06 0.0 0.0
C -25.8299 -2.13042 0.0
C -24.6 -4.26084 0.0
C -23.3699 -6.39126 0.0
C -22.14 -8.52169 0.0
C -20.91 -10.6521 0.0
C -19.68 -12.7825 0.0
C -18.45 -14.9129 0.0
C -17.22 -17.0433 0.0
C -15.99 -19.1738 0.0
C -14.76 -21.3042 0.0
C -13.53 -23.4346 0.0
C -12.3 -25.565 0.0
C -11.07 -27.6954 0.0
C -9.84 -29.8259 0.0
C -8.61 -31.9563 0.0
C -7.38 -34.0867 0.0
C -6.15 -36.2171 0.0
C -4.92 -38.3476 0.0
C -3.69 -40.478 0.0
C -2.46 -42.6084 0.0
C -1.23 -44.7388 0.0
C -0.0 -46.8692 0.0
C 1.23 -48.9997 0.0
C -27.06 4.260845 0.0
C -25.8299 2.130422 0.0
C -24.6 0.0 0.0
C -23.3699 -2.13042 0.0
C -22.14 -4.26084 0.0
C -20.91 -6.39126 0.0
C -19.68 -8.52169 0.0
C -18.45 -10.6521 0.0
C -17.22 -12.7825 0.0
C -15.99 -14.9129 0.0
C -14.76 -17.0433 0.0
C -13.53 -19.1738 0.0
C -12.3 -21.3042 0.0
C -11.07 -23.4346 0.0
C -9.84 -25.565 0.0
C -8.61 -27.6954 0.0
C -7.38 -29.8259 0.0
C -6.15 -31.9563 0.0
C -4.92 -34.0867 0.0
C -3.69 -36.2171 0.0
C -2.46 -38.3476 0.0
C -1.23 -40.478 0.0
C -0.0 -42.6084 0.0
C 1.23 -44.7388 0.0
C 2.46 -46.8692 0.0
C -25.8299 6.391268 0.0
C -24.6 4.260845 0.0
C -23.3699 2.130422 0.0
C -22.14 0.0 0.0
C -20.91 -2.13042 0.0
C -19.68 -4.26084 0.0
C -18.45 -6.39126 0.0
C -17.22 -8.52169 0.0
C -15.99 -10.6521 0.0
C -14.76 -12.7825 0.0
C -13.53 -14.9129 0.0
C -12.3 -17.0433 0.0
C -11.07 -19.1738 0.0
C -9.84 -21.3042 0.0
C -8.61 -23.4346 0.0
C -7.38 -25.565 0.0
C -6.15 -27.6954 0.0
C -4.92 -29.8259 0.0
C -3.69 -31.9563 0.0
C -2.46 -34.0867 0.0
C -1.23 -36.2171 0.0
C -0.0 -38.3476 0.0
C 1.23 -40.478 0.0
C 2.46 -42.6084 0.0
C 3.69 -44.7388 0.0
C -24.6 8.52169 0.0
C -23.3699 6.391268 0.0
C -22.14 4.260845 0.0
C -20.91 2.130422 0.0
C -19.68 0.0 0.0
C -18.45 -2.13042 0.0
C -17.22 -4.26084 0.0
C -15.99 -6.39126 0.0
C -14.76 -8.52169 0.0
C -13.53 -10.6521 0.0
C -12.3 -12.7825 0.0
C -11.07 -14.9129 0.0
C -9.84 -17.0433 0.0
C -8.61 -19.1738 0.0
C -7.38 -21.3042 0.0
C -6.15 -23.4346 0.0
C -4.92 -25.565 0.0
C -3.69 -27.6954 0.0
C -2.46 -29.8259 0.0
C -1.23 -31.9563 0.0
C -0.0 -34.0867 0.0
C 1.23 -36.2171 0.0
C 2.46 -38.3476 0.0
C 3.69 -40.478 0.0
C 4.92 -42.6084 0.0
C -23.3699 10.65211 0.0
C -22.14 8.52169 0.0
C -20.91 6.391268 0.0
C -19.68 4.260845 0.0
C -18.45 2.130422 0.0
C -17.22 0.0 0.0
C -15.99 -2.13042 0.0
C -14.76 -4.26084 0.0
C -13.53 -6.39126 0.0
C -12.3 -8.52169 0.0
C -11.07 -10.6521 0.0
C -9.84 -12.7825 0.0
C -8.61 -14.9129 0.0
C -7.38 -17.0433 0.0
C -6.15 -19.1738 0.0
C -4.92 -21.3042 0.0
C -3.69 -23.4346 0.0
C -2.46 -25.565 0.0
C -1.23 -27.6954 0.0
C -0.0 -29.8259 0.0
C 1.23 -31.9563 0.0
C 2.46 -34.0867 0.0
C 3.69 -36.2171 0.0
C 4.92 -38.3476 0.0
C 6.15 -40.478 0.0
C -22.14 12.78253 0.0
C -20.91 10.65211 0.0
C -19.68 8.52169 0.0
C -18.45 6.391268 0.0
C -17.22 4.260845 0.0
C -15.99 2.130422 0.0
C -14.76 0.0 0.0
C -13.53 -2.13042 0.0
C -12.3 -4.26084 0.0
C -11.07 -6.39126 0.0
C -9.84 -8.52169 0.0
C -8.61 -10.6521 0.0
C -7.38 -12.7825 0.0
C -6.15 -14.9129 0.0
C -4.92 -17.0433 0.0
C -3.69 -19.1738 0.0
C -2.46 -21.3042 0.0
C -1.23 -23.4346 0.0
C -0.0 -25.565 0.0
C 1.23 -27.6954 0.0
C 2.46 -29.8259 0.0
C 3.69 -31.9563 0.0
C 4.92 -34.0867 0.0
C 6.15 -36.2171 0.0
C 7.38 -38.3476 0.0
C -20.91 14.91295 0.0
C -19.68 12.78253 0.0
C -18.45 10.65211 0.0
C -17.22 8.52169 0.0
C -15.99 6.391268 0.0
C -14.76 4.260845 0.0
C -13.53 2.130422 0.0
C -12.3 0.0 0.0
C -11.07 -2.13042 0.0
C -9.84 -4.26084 0.0
C -8.61 -6.39126 0.0
C -7.38 -8.52169 0.0
C -6.15 -10.6521 0.0
C -4.92 -12.7825 0.0
C -3.69 -14.9129 0.0
C -2.46 -17.0433 0.0
C -1.23 -19.1738 0.0
C -0.0 -21.3042 0.0
C 1.23 -23.4346 0.0
C 2.46 -25.565 0.0
C 3.69 -27.6954 0.0
C 4.92 -29.8259 0.0
C 6.15 -31.9563 0.0
C 7.38 -34.0867 0.0
C 8.61 -36.2171 0.0
C -19.68 17.04338 0.0
C -18.45 14.91295 0.0
C -17.22 12.78253 0.0
C -15.99 10.65211 0.0
C -14.76 8.52169 0.0
C -13.53 6.391268 0.0
C -12.3 4.260845 0.0
C -11.07 2.130422 0.0
C -9.84 0.0 0.0
C -8.61 -2.13042 0.0
C -7.38 -4.26084 0.0
C -6.15 -6.39126 0.0
C -4.92 -8.52169 0.0
C -3.69 -10.6521 0.0
C -2.46 -12.7825 0.0
C -1.23 -14.9129 0.0
C -0.0 -17.0433 0.0
C 1.23 -19.1738 0.0
C 2.46 -21.3042 0.0
C 3.69 -23.4346 0.0
C 4.92 -25.565 0.0
C 6.15 -27.6954 0.0
C 7.38 -29.8259 0.0
C 8.61 -31.9563 0.0
C 9.84 -34.0867 0.0
C -18.45 19.1738 0.0
C -17.22 17.04338 0.0
C -15.99 14.91295 0.0
C -14.76 12.78253 0.0
C -13.53 10.65211 0.0
C -12.3 8.52169 0.0
C -11.07 6.391268 0.0
C -9.84 4.260845 0.0
C -8.61 2.130422 0.0
C -7.38 0.0 0.0
C -6.15 -2.13042 0.0
C -4.92 -4.26084 0.0
C -3.69 -6.39126 0.0
C -2.46 -8.52169 0.0
C -1.23 -10.6521 0.0
C -0.0 -12.7825 0.0
C 1.23 -14.9129 0.0
C 2.46 -17.0433 0.0
C 3.69 -19.1738 0.0
C 4.92 -21.3042 0.0
C 6.15 -23.4346 0.0
C 7.38 -25.565 0.0
C 8.61 -27.6954 0.0
C 9.84 -29.8259 0.0
C 11.07 -31.9563 0.0
C -17.22 21.30422 0.0
C -15.99 19.1738 0.0
C -14.76 17.04338 0.0
C -13.53 14.91295 0.0
C -12.3 12.78253 0.0
C -11.07 10.65211 0.0
C -9.84 8.52169 0.0
C -8.61 6.391268 0.0
C -7.38 4.260845 0.0
C -6.15 2.130422 0.0
C -4.92 0.0 0.0
C -3.69 -2.13042 0.0
C -2.46 -4.26084 0.0
C -1.23 -6.39126 0.0
C -0.0 -8.52169 0.0
C 1.23 -10.6521 0.0
C 2.46 -12.7825 0.0
C 3.69 -14.9129 0.0
C 4.92 -17.0433 0.0
C 6.15 -19.1738 0.0
C 7.38 -21.3042 0.0
C 8.61 -23.4346 0.0
C 9.84 -25.565 0.0
C 11.07 -27.6954 0.0
C 12.3 -29.8259 0.0
C -15.99 23.43464 0.0
C -14.76 21.30422 0.0
C -13.53 19.1738 0.0
C -12.3 17.04338 0.0
C -11.07 14.91295 0.0
C -9.84 12.78253 0.0
C -8.61 10.65211 0.0
C -7.38 8.52169 0.0
C -6.15 6.391268 0.0
C -4.92 4.260845 0.0
C -3.69 2.130422 0.0
C -2.46 0.0 0.0
C -1.23 -2.13042 0.0
C -0.0 -4.26084 0.0
C 1.23 -6.39126 0.0
C 2.46 -8.52169 0.0
C 3.69 -10.6521 0.0
C 4.92 -12.7825 0.0
C 6.15 -14.9129 0.0
C 7.38 -17.0433 0.0
C 8.61 -19.1738 0.0
C 9.84 -21.3042 0.0
C 11.07 -23.4346 0.0
C 12.3 -25.565 0.0
C 13.53 -27.6954 0.0
C -14.76 25.56507 0.0
C -13.53 23.43464 0.0
C -12.3 21.30422 0.0
C -11.07 19.1738 0.0
C -9.84 17.04338 0.0
C -8.61 14.91295 0.0
C -7.38 12.78253 0.0
C -6.15 10.65211 0.0
C -4.92 8.52169 0.0
C -3.69 6.391268 0.0
C -2.46 4.260845 0.0
C -1.23 2.130422 0.0
C -0.0 0.0 0.0
C 1.23 -2.13042 0.0
C 2.46 -4.26084 0.0
C 3.69 -6.39126 0.0
C 4.92 -8.52169 0.0
C 6.15 -10.6521 0.0
C 7.38 -12.7825 0.0
C 8.61 -14.9129 0.0
C 9.84 -17.0433 0.0
C 11.07 -19.1738 0.0
C 12.3 -21.3042 0.0
C 13.53 -23.4346 0.0
C 14.76 -25.565 0.0
C -13.53 27.69549 0.0
C -12.3 25.56507 0.0
C -11.07 23.43464 0.0
C -9.84 21.30422 0.0
C -8.61 19.1738 0.0
C -7.38 17.04338 0.0
C -6.15 14.91295 0.0
C -4.92 12.78253 0.0
C -3.69 10.65211 0.0
C -2.46 8.52169 0.0
C -1.23 6.391268 0.0
C -0.0 4.260845 0.0
C 1.23 2.130422 0.0
C 2.46 0.0 0.0
C 3.69 -2.13042 0.0
C 4.92 -4.26084 0.0
C 6.15 -6.39126 0.0
C 7.38 -8.52169 0.0
C 8.61 -10.6521 0.0
C 9.84 -12.7825 0.0
C 11.07 -14.9129 0.0
C 12.3 -17.0433 0.0
C 13.53 -19.1738 0.0
C 14.76 -21.3042 0.0
C 15.99 -23.4346 0.0
C -12.3 29.82591 0.0
C -11.07 27.69549 0.0
C -9.84 25.56507 0.0
C -8.61 23.43464 0.0
C -7.38 21.30422 0.0
C -6.15 19.1738 0.0
C -4.92 17.04338 0.0
C -3.69 14.91295 0.0
C -2.46 12.78253 0.0
C -1.23 10.65211 0.0
C -0.0 8.52169 0.0
C 1.23 6.391268 0.0
C 2.46 4.260845 0.0
C 3.69 2.130422 0.0
C 4.92 0.0 0.0
C 6.15 -2.13042 0.0
C 7.38 -4.26084 0.0
C 8.61 -6.39126 0.0
C 9.84 -8.52169 0.0
C 11.07 -10.6521 0.0
C 12.3 -12.7825 0.0
C 13.53 -14.9129 0.0
C 14.76 -17.0433 0.0
C 15.99 -19.1738 0.0
C 17.22 -21.3042 0.0
C -11.07 31.95633 0.0
C -9.84 29.82591 0.0
C -8.61 27.69549 0.0
C -7.38 25.56507 0.0
C -6.15 23.43464 0.0
C -4.92 21.30422 0.0
C -3.69 19.1738 0.0
C -2.46 17.04338 0.0
C -1.23 14.91295 0.0
C -0.0 12.78253 0.0
C 1.23 10.65211 0.0
C 2.46 8.52169 0.0
C 3.69 6.391268 0.0
C 4.92 4.260845 0.0
C 6.15 2.130422 0.0
C 7.38 0.0 0.0
C 8.61 -2.13042 0.0
C 9.84 -4.26084 0.0
C 11.07 -6.39126 0.0
C 12.3 -8.52169 0.0
C 13.53 -10.6521 0.0
C 14.76 -12.7825 0.0
C 15.99 -14.9129 0.0
C 17.22 -17.0433 0.0
C 18.45 -19.1738 0.0
C -9.84 34.08675 0.0
C -8.61 31.95633 0.0
C -7.38 29.82591 0.0
C -6.15 27.69549 0.0
C -4.92 25.56507 0.0
C -3.69 23.43464 0.0
C -2.46 21.30422 0.0
C -1.23 19.1738 0.0
C -0.0 17.04338 0.0
C 1.23 14.91295 0.0
C 2.46 12.78253 0.0
C 3.69 10.65211 0.0
C 4.92 8.52169 0.0
C 6.15 6.391268 0.0
C 7.38 4.260845 0.0
C 8.61 2.130422 0.0
C 9.84 0.0 0.0
C 11.07 -2.13042 0.0
C 12.3 -4.26084 0.0
C 13.53 -6.39126 0.0
C 14.76 -8.52169 0.0
C 15.99 -10.6521 0.0
C 17.22 -12.7825 0.0
C 18.45 -14.9129 0.0
C 19.68 -17.0433 0.0
C -8.61 36.21718 0.0
C -7.38 34.08675 0.0
C -6.15 31.95633 0.0
C -4.92 29.82591 0.0
C -3.69 27.69549 0.0
C -2.46 25.56507 0.0
C -1.23 23.43464 0.0
C -0.0 21.30422 0.0
C 1.23 19.1738 0.0
C 2.46 17.04338 0.0
C 3.69 14.91295 0.0
C 4.92 12.78253 0.0
C 6.15 10.65211 0.0
C 7.38 8.52169 0.0
C 8.61 6.391268 0.0
C 9.84 4.260845 0.0
C 11.07 2.130422 0.0
C 12.3 0.0 0.0
C 13.53 -2.13042 0.0
C 14.76 -4.26084 0.0
C 15.99 -6.39126 0.0
C 17.22 -8.52169 0.0
C 18.45 -10.6521 0.0
C 19.68 -12.7825 0.0
C 20.91 -14.9129 0.0
C -7.38 38.3476 0.0
C -6.15 36.21718 0.0
C -4.92 34.08675 0.0
C -3.69 31.95633 0.0
C -2.46 29.82591 0.0
C -1.23 27.69549 0.0
C -0.0 25.56507 0.0
C 1.23 23.43464 0.0
C 2.46 21.30422 0.0
C 3.69 19.1738 0.0
C 4.92 17.04338 0.0
C 6.15 14.91295 0.0
C 7.38 12.78253 0.0
C 8.61 10.65211 0.0
C 9.84 8.52169 0.0
C 11.07 6.391268 0.0
C 12.3 4.260845 0.0
C 13.53 2.130422 0.0
C 14.76 0.0 0.0
C 15.99 -2.13042 0.0
C 17.22 -4.26084 0.0
C 18.45 -6.39126 0.0
C 19.68 -8.52169 0.0
C 20.91 -10.6521 0.0
C 22.14 -12.7825 0.0
C -6.15 40.47802 0.0
C -4.92 38.3476 0.0
C -3.69 36.21718 0.0
C -2.46 34.08675 0.0
C -1.23 31.95633 0.0
C -0.0 29.82591 0.0
C 1.23 27.69549 0.0
C 2.46 25.56507 0.0
C 3.69 23.43464 0.0
C 4.92 21.30422 0.0
C 6.15 19.1738 0.0
C 7.38 17.04338 0.0
C 8.61 14.91295 0.0
C 9.84 12.78253 0.0
C 11.07 10.65211 0.0
C 12.3 8.52169 0.0
C 13.53 6.391268 0.0
C 14.76 4.260845 0.0
C 15.99 2.130422 0.0
C 17.22 0.0 0.0
C 18.45 -2.13042 0.0
C 19.68 -4.26084 0.0
C 20.91 -6.39126 0.0
C 22.14 -8.52169 0.0
C 23.36999 -10.6521 0.0
C -4.92 42.60845 0.0
C -3.69 40.47802 0.0
C -2.46 38.3476 0.0
C -1.23 36.21718 0.0
C -0.0 34.08675 0.0
C 1.23 31.95633 0.0
C 2.46 29.82591 0.0
C 3.69 27.69549 0.0
C 4.92 25.56507 0.0
C 6.15 23.43464 0.0
C 7.38 21.30422 0.0
C 8.61 19.1738 0.0
C 9.84 17.04338 0.0
C 11.07 14.91295 0.0
C 12.3 12.78253 0.0
C 13.53 10.65211 0.0
C 14.76 8.52169 0.0
C 15.99 6.391268 0.0
C 17.22 4.260845 0.0
C 18.45 2.130422 0.0
C 19.68 0.0 0.0
C 20.91 -2.13042 0.0
C 22.14 -4.26084 0.0
C 23.36999 -6.39126 0.0
C 24.6 -8.52169 0.0
C -3.69 44.73887 0.0
C -2.46 42.60845 0.0
C -1.23 40.47802 0.0
C -0.0 38.3476 0.0
C 1.23 36.21718 0.0
C 2.46 34.08675 0.0
C 3.69 31.95633 0.0
C 4.92 29.82591 0.0
C 6.15 27.69549 0.0
C 7.38 25.56507 0.0
C 8.61 23.43464 0.0
C 9.84 21.30422 0.0
C 11.07 19.1738 0.0
C 12.3 17.04338 0.0
C 13.53 14.91295 0.0
C 14.76 12.78253 0.0
C 15.99 10.65211 0.0
C 17.22 8.52169 0.0
C 18.45 6.391268 0.0
C 19.68 4.260845 0.0
C 20.91 2.130422 0.0
C 22.14 0.0 0.0
C 23.36999 -2.13042 0.0
C 24.6 -4.26084 0.0
C 25.82999 -6.39126 0.0
C -2.46 46.86929 0.0
C -1.23 44.73887 0.0
C -0.0 42.60845 0.0
C 1.23 40.47802 0.0
C 2.46 38.3476 0.0
C 3.69 36.21718 0.0
C 4.92 34.08675 0.0
C 6.15 31.95633 0.0
C 7.38 29.82591 0.0
C 8.61 27.69549 0.0
C 9.84 25.56507 0.0
C 11.07 23.43464 0.0
C 12.3 21.30422 0.0
C 13.53 19.1738 0.0
C 14.76 17.04338 0.0
C 15.99 14.91295 0.0
C 17.22 12.78253 0.0
C 18.45 10.65211 0.0
C 19.68 8.52169 0.0
C 20.91 6.391268 0.0
C 22.14 4.260845 0.0
C 23.36999 2.130422 0.0
C 24.6 0.0 0.0
C 25.82999 -2.13042 0.0
C 27.06 -4.26084 0.0
C -1.23 48.99972 0.0
C -0.0 46.86929 0.0
C 1.23 44.73887 0.0
C 2.46 42.60845 0.0
C 3.69 40.47802 0.0
C 4.92 38.3476 0.0
C 6.15 36.21718 0.0
C 7.38 34.08675 0.0
C 8.61 31.95633 0.0
C 9.84 29.82591 0.0
C 11.07 27.69549 0.0
C 12.3 25.56507 0.0
C 13.53 23.43464 0.0
C 14.76 21.30422 0.0
C 15.99 19.1738 0.0
C 17.22 17.04338 0.0
C 18.45 14.91295 0.0
C 19.68 12.78253 0.0
C 20.91 10.65211 0.0
C 22.14 8.52169 0.0
C 23.36999 6.391268 0.0
C 24.6 4.260845 0.0
C 25.82999 2.130422 0.0
C 27.06 0.0 0.0
C 28.29 -2.13042 0.0
C -0.0 51.13014 0.0
C 1.23 48.99972 0.0
C 2.46 46.86929 0.0
C 3.69 44.73887 0.0
C 4.92 42.60845 0.0
C 6.15 40.47802 0.0
C 7.38 38.3476 0.0
C 8.61 36.21718 0.0
C 9.84 34.08675 0.0
C 11.07 31.95633 0.0
C 12.3 29.82591 0.0
C 13.53 27.69549 0.0
C 14.76 25.56507 0.0
C 15.99 23.43464 0.0
C 17.22 21.30422 0.0
C 18.45 19.1738 0.0
C 19.68 17.04338 0.0
C 20.91 14.91295 0.0
C 22.14 12.78253 0.0
C 23.36999 10.65211 0.0
C 24.6 8.52169 0.0
C 25.82999 6.391268 0.0
C 27.06 4.260845 0.0
C 28.29 2.130422 0.0
C 29.51999 0.0 0.0
C -29.5199 1.420282 0.0
C -28.29 -0.71014 0.0
C -27.06 -2.84056 0.0
C -25.8299 -4.97098 0.0
C -24.6 -7.1014 0.0
C -23.3699 -9.23183 0.0
C -22.14 -11.3622 0.0
C -20.91 -13.4926 0.0
C -19.68 -15.623 0.0
C -18.45 -17.7535 0.0
C -17.22 -19.8839 0.0
C -15.99 -22.0143 0.0
C -14.76 -24.1447 0.0
C -13.53 -26.2752 0.0
C -12.3 -28.4056 0.0
C -11.07 -30.536 0.0
C -9.84 -32.6664 0.0
C -8.61 -34.7969 0.0
C -7.38 -36.9273 0.0
C -6.15 -39.0577 0.0
C -4.92 -41.1881 0.0
C -3.69 -43.3185 0.0
C -2.46 -45.449 0.0
C -1.23 -47.5794 0.0
C -0.0 -49.7098 0.0
C -28.29 3.550704 0.0
C -27.06 1.420282 0.0
C -25.8299 -0.71014 0.0
C -24.6 -2.84056 0.0
C -23.3699 -4.97098 0.0
C -22.14 -7.1014 0.0
C -20.91 -9.23183 0.0
C -19.68 -11.3622 0.0
C -18.45 -13.4926 0.0
C -17.22 -15.623 0.0
C -15.99 -17.7535 0.0
C -14.76 -19.8839 0.0
C -13.53 -22.0143 0.0
C -12.3 -24.1447 0.0
C -11.07 -26.2752 0.0
C -9.84 -28.4056 0.0
C -8.61 -30.536 0.0
C -7.38 -32.6664 0.0
C -6.15 -34.7969 0.0
C -4.92 -36.9273 0.0
C -3.69 -39.0577 0.0
C -2.46 -41.1881 0.0
C -1.23 -43.3185 0.0
C -0.0 -45.449 0.0
C 1.23 -47.5794 0.0
C -27.06 5.681127 0.0
C -25.8299 3.550704 0.0
C -24.6 1.420282 0.0
C -23.3699 -0.71014 0.0
C -22.14 -2.84056 0.0
C -20.91 -4.97098 0.0
C -19.68 -7.1014 0.0
C -18.45 -9.23183 0.0
C -17.22 -11.3622 0.0
C -15.99 -13.4926 0.0
C -14.76 -15.623 0.0
C -13.53 -17.7535 0.0
C -12.3 -19.8839 0.0
C -11.07 -22.0143 0.0
C -9.84 -24.1447 0.0
C -8.61 -26.2752 0.0
C -7.38 -28.4056 0.0
C -6.15 -30.536 0.0
C -4.92 -32.6664 0.0
C -3.69 -34.7969 0.0
C -2.46 -36.9273 0.0
C -1.23 -39.0577 0.0
C -0.0 -41.1881 0.0
C 1.23 -43.3185 0.0
C 2.46 -45.449 0.0
C -25.8299 7.811549 0.0
C -24.6 5.681127 0.0
C -23.3699 3.550704 0.0
C -22.14 1.420282 0.0
C -20.91 -0.71014 0.0
C -19.68 -2.84056 0.0
C -18.45 -4.97098 0.0
C -17.22 -7.1014 0.0
C -15.99 -9.23183 0.0
C -14.76 -11.3622 0.0
C -13.53 -13.4926 0.0
C -12.3 -15.623 0.0
C -11.07 -17.7535 0.0
C -9.84 -19.8839 0.0
C -8.61 -22.0143 0.0
C -7.38 -24.1447 0.0
C -6.15 -26.2752 0.0
C -4.92 -28.4056 0.0
C -3.69 -30.536 0.0
C -2.46 -32.6664 0.0
C -1.23 -34.7969 0.0
C -0.0 -36.9273 0.0
C 1.23 -39.0577 0.0
C 2.46 -41.1881 0.0
C 3.69 -43.3185 0.0
C -24.6 9.941971 0.0
C -23.3699 7.811549 0.0
C -22.14 5.681127 0.0
C -20.91 3.550704 0.0
C -19.68 1.420282 0.0
C -18.45 -0.71014 0.0
C -17.22 -2.84056 0.0
C -15.99 -4.97098 0.0
C -14.76 -7.1014 0.0
C -13.53 -9.23183 0.0
C -12.3 -11.3622 0.0
C -11.07 -13.4926 0.0
C -9.84 -15.623 0.0
C -8.61 -17.7535 0.0
C -7.38 -19.8839 0.0
C -6.15 -22.0143 0.0
C -4.92 -24.1447 0.0
C -3.69 -26.2752 0.0
C -2.46 -28.4056 0.0
C -1.23 -30.536 0.0
C -0.0 -32.6664 0.0
C 1.23 -34.7969 0.0
C 2.46 -36.9273 0.0
C 3.69 -39.0577 0.0
C 4.92 -41.1881 0.0
C -23.3699 12.07239 0.0
C -22.14 9.941971 0.0
C -20.91 7.811549 0.0
C -19.68 5.681127 0.0
C -18.45 3.550704 0.0
C -17.22 1.420282 0.0
C -15.99 -0.71014 0.0
C -14.76 -2.84056 0.0
C -13.53 -4.97098 0.0
C -12.3 -7.1014 0.0
C -11.07 -9.23183 0.0
C -9.84 -11.3622 0.0
C -8.61 -13.4926 0.0
C -7.38 -15.623 0.0
C -6.15 -17.7535 0.0
C -4.92 -19.8839 0.0
C -3.69 -22.0143 0.0
C -2.46 -24.1447 0.0
C -1.23 -26.2752 0.0
C -0.0 -28.4056 0.0
C 1.23 -30.536 0.0
C 2.46 -32.6664 0.0
C 3.69 -34.7969 0.0
C 4.92 -36.9273 0.0
C 6.15 -39.0577 0.0
C -22.14 14.20281 0.0
C -20.91 12.07239 0.0
C -19.68 9.941971 0.0
C -18.45 7.811549 0.0
C -17.22 5.681127 0.0
C -15.99 3.550704 0.0
C -14.76 1.420282 0.0
C -13.53 -0.71014 0.0
C -12.3 -2.84056 0.0
C -11.07 -4.97098 0.0
C -9.84 -7.1014 0.0
C -8.61 -9.23183 0.0
C -7.38 -11.3622 0.0
C -6.15 -13.4926 0.0
C -4.92 -15.623 0.0
C -3.69 -17.7535 0.0
C -2.46 -19.8839 0.0
C -1.23 -22.0143 0.0
C -0.0 -24.1447 0.0
C 1.23 -26.2752 0.0
C 2.46 -28.4056 0.0
C 3.69 -30.536 0.0
C 4.92 -32.6664 0.0
C 6.15 -34.7969 0.0
C 7.38 -36.9273 0.0
C -20.91 16.33323 0.0
C -19.68 14.20281 0.0
C -18.45 12.07239 0.0
C -17.22 9.941971 0.0
C -15.99 7.811549 0.0
C -14.76 5.681127 0.0
C -13.53 3.550704 0.0
C -12.3 1.420282 0.0
C -11.07 -0.71014 0.0
C -9.84 -2.84056 0.0
C -8.61 -4.97098 0.0
C -7.38 -7.1014 0.0
C -6.15 -9.23183 0.0
C -4.92 -11.3622 0.0
C -3.69 -13.4926 0.0
C -2.46 -15.623 0.0
C -1.23 -17.7535 0.0
C -0.0 -19.8839 0.0
C 1.23 -22.0143 0.0
C 2.46 -24.1447 0.0
C 3.69 -26.2752 0.0
C 4.92 -28.4056 0.0
C 6.15 -30.536 0.0
C 7.38 -32.6664 0.0
C 8.61 -34.7969 0.0
C -19.68 18.46366 0.0
C -18.45 16.33323 0.0
C -17.22 14.20281 0.0
C -15.99 12.07239 0.0
C -14.76 9.941971 0.0
C -13.53 7.811549 0.0
C -12.3 5.681127 0.0
C -11.07 3.550704 0.0
C -9.84 1.420282 0.0
C -8.61 -0.71014 0.0
C -7.38 -2.84056 0.0
C -6.15 -4.97098 0.0
C -4.92 -7.1014 0.0
C -3.69 -9.23183 0.0
C -2.46 -11.3622 0.0
C -1.23 -13.4926 0.0
C -0.0 -15.623 0.0
C 1.23 -17.7535 0.0
C 2.46 -19.8839 0.0
C 3.69 -22.0143 0.0
C 4.92 -24.1447 0.0
C 6.15 -26.2752 0.0
C 7.38 -28.4056 0.0
C 8.61 -30.536 0.0
C 9.84 -32.6664 0.0
C -18.45 20.59408 0.0
C -17.22 18.46366 0.0
C -15.99 16.33323 0.0
C -14.76 14.20281 0.0
C -13.53 12.07239 0.0
C -12.3 9.941971 0.0
C -11.07 7.811549 0.0
C -9.84 5.681127 0.0
C -8.61 3.550704 0.0
C -7.38 1.420282 0.0
C -6.15 -0.71014 0.0
C -4.92 -2.84056 0.0
C -3.69 -4.97098 0.0
C -2.46 -7.1014 0.0
C -1.23 -9.23183 0.0
C -0.0 -11.3622 0.0
C 1.23 -13.4926 0.0
C 2.46 -15.623 0.0
C 3.69 -17.7535 0.0
C 4.92 -19.8839 0.0
C 6.15 -22.0143 0.0
C 7.38 -24.1447 0.0
C 8.61 -26.2752 0.0
C 9.84 -28.4056 0.0
C 11.07 -30.536 0.0
C -17.22 22.7245 0.0
C -15.99 20.59408 0.0
C -14.76 18.46366 0.0
C -13.53 16.33323 0.0
C -12.3 14.20281 0.0
C -11.07 12.07239 0.0
C -9.84 9.941971 0.0
C -8.61 7.811549 0.0
C -7.38 5.681127 0.0
C -6.15 3.550704 0.0
C -4.92 1.420282 0.0
C -3.69 -0.71014 0.0
C -2.46 -2.84056 0.0
C -1.23 -4.97098 0.0
C -0.0 -7.1014 0.0
C 1.23 -9.23183 0.0
C 2.46 -11.3622 0.0
C 3.69 -13.4926 0.0
C 4.92 -15.623 0.0
C 6.15 -17.7535 0.0
C 7.38 -19.8839 0.0
C 8.61 -22.0143 0.0
C 9.84 -24.1447 0.0
C 11.07 -26.2752 0.0
C 12.3 -28.4056 0.0
C -15.99 24.85492 0.0
C -14.76 22.7245 0.0
C -13.53 20.59408 0.0
C -12.3 18.46366 0.0
C -11.07 16.33323 0.0
C -9.84 14.20281 0.0
C -8.61 12.07239 0.0
C -7.38 9.941971 0.0
C -6.15 7.811549 0.0
C -4.92 5.681127 0.0
C -3.69 3.550704 0.0
C -2.46 1.420282 0.0
C -1.23 -0.71014 0.0
C -0.0 -2.84056 0.0
C 1.23 -4.97098 0.0
C 2.46 -7.1014 0.0
C 3.69 -9.23183 0.0
C 4.92 -11.3622 0.0
C 6.15 -13.4926 0.0
C 7.38 -15.623 0.0
C 8.61 -17.7535 0.0
C 9.84 -19.8839 0.0
C 11.07 -22.0143 0.0
C 12.3 -24.1447 0.0
C 13.53 -26.2752 0.0
C -14.76 26.98535 0.0
C -13.53 24.85492 0.0
C -12.3 22.7245 0.0
C -11.07 20.59408 0.0
C -9.84 18.46366 0.0
C -8.61 16.33323 0.0
C -7.38 14.20281 0.0
C -6.15 12.07239 0.0
C -4.92 9.941971 0.0
C -3.69 7.811549 0.0
C -2.46 5.681127 0.0
C -1.23 3.550704 0.0
C -0.0 1.420282 0.0
C 1.23 -0.71014 0.0
C 2.46 -2.84056 0.0
C 3.69 -4.97098 0.0
C 4.92 -7.1014 0.0
C 6.15 -9.23183 0.0
C 7.38 -11.3622 0.0
C 8.61 -13.4926 0.0
C 9.84 -15.623 0.0
C 11.07 -17.7535 0.0
C 12.3 -19.8839 0.0
C 13.53 -22.0143 0.0
C 14.76 -24.1447 0.0
C -13.53 29.11577 0.0
C -12.3 26.98535 0.0
C -11.07 24.85492 0.0
C -9.84 22.7245 0.0
C -8.61 20.59408 0.0
C -7.38 18.46366 0.0
C -6.15 16.33323 0.0
C -4.92 14.20281 0.0
C -3.69 12.07239 0.0
C -2.46 9.941971 0.0
C -1.23 7.811549 0.0
C -0.0 5.681127 0.0
C 1.23 3.550704 0.0
C 2.46 1.420282 0.0
C 3.69 -0.71014 0.0
C 4.92 -2.84056 0.0
C 6.15 -4.97098 0.0
C 7.38 -7.1014 0.0
C 8.61 -9.23183 0.0
C 9.84 -11.3622 0.0
C 11.07 -13.4926 0.0
C 12.3 -15.623 0.0
C 13.53 -17.7535 0.0
C 14.76 -19.8839 0.0
C 15.99 -22.0143 0.0
C -12.3 31.24619 0.0
C -11.07 29.11577 0.0
C -9.84 26.98535 0.0
C -8.61 24.85492 0.0
C -7.38 22.7245 0.0
C -6.15 20.59408 0.0
C -4.92 18.46366 0.0
C -3.69 16.33323 0.0
C -2.46 14.20281 0.0
C -1.23 12.07239 0.0
C -0.0 9.941971 0.0
C 1.23 7.811549 0.0
C 2.46 5.681127 0.0
C 3.69 3.550704 0.0
C 4.92 1.420282 0.0
C 6.15 -0.71014 0.0
C 7.38 -2.84056 0.0
C 8.61 -4.97098 0.0
C 9.84 -7.1014 0.0
C 11.07 -9.23183 0.0
C 12.3 -11.3622 0.0
C 13.53 -13.4926 0.0
C 14.76 -15.623 0.0
C 15.99 -17.7535 0.0
C 17.22 -19.8839 0.0
C -11.07 33.37661 0.0
C -9.84 31.24619 0.0
C -8.61 29.11577 0.0
C -7.38 26.98535 0.0
C -6.15 24.85492 0.0
C -4.92 22.7245 0.0
C -3.69 20.59408 0.0
C -2.46 18.46366 0.0
C -1.23 16.33323 0.0
C -0.0 14.20281 0.0
C 1.23 12.07239 0.0
C 2.46 9.941971 0.0
C 3.69 7.811549 0.0
C 4.92 5.681127 0.0
C 6.15 3.550704 0.0
C 7.38 1.420282 0.0
C 8.61 -0.71014 0.0
C 9.84 -2.84056 0.0
C 11.07 -4.97098 0.0
C 12.3 -7.1014 0.0
C 13.53 -9.23183 0.0
C 14.76 -11.3622 0.0
C 15.99 -13.4926 0.0
C 17.22 -15.623 0.0
C 18.45 -17.7535 0.0
C -9.84 35.50704 0.0
C -8.61 33.37661 0.0
C -7.38 31.24619 0.0
C -6.15 29.11577 0.0
C -4.92 26.98535 0.0
C -3.69 24.85492 0.0
C -2.46 22.7245 0.0
C -1.23 20.59408 0.0
C -0.0 18.46366 0.0
C 1.23 16.33323 0.0
C 2.46 14.20281 0.0
C 3.69 12.07239 0.0
C 4.92 9.941971 0.0
C 6.15 7.811549 0.0
C 7.38 5.681127 0.0
C 8.61 3.550704 0.0
C 9.84 1.420282 0.0
C 11.07 -0.71014 0.0
C 12.3 -2.84056 0.0
C 13.53 -4.97098 0.0
C 14.76 -7.1014 0.0
C 15.99 -9.23183 0.0
C 17.22 -11.3622 0.0
C 18.45 -13.4926 0.0
C 19.68 -15.623 0.0
C -8.61 37.63746 0.0
C -7.38 35.50704 0.0
C -6.15 33.37661 0.0
C -4.92 31.24619 0.0
C -3.69 29.11577 0.0
C -2.46 26.98535 0.0
C -1.23 24.85492 0.0
C -0.0 22.7245 0.0
C 1.23 20.59408 0.0
C 2.46 18.46366 0.0
C 3.69 16.33323 0.0
C 4.92 14.20281 0.0
C 6.15 12.07239 0.0
C 7.38 9.941971 0.0
C 8.61 7.811549 0.0
C 9.84 5.681127 0.0
C 11.07 3.550704 0.0
C 12.3 1.420282 0.0
C 13.53 -0.71014 0.0
C 14.76 -2.84056 0.0
C 15.99 -4.97098 0.0
C 17.22 -7.1014 0.0
C 18.45 -9.23183 0.0
C 19.68 -11.3622 0.0
C 20.91 -13.4926 0.0
C -7.38 39.76788 0.0
C -6.15 37.63746 0.0
C -4.92 35.50704 0.0
C -3.69 33.37661 0.0
C -2.46 31.24619 0.0
C -1.23 29.11577 0.0
C -0.0 26.98535 0.0
C 1.23 24.85492 0.0
C 2.46 22.7245 0.0
C 3.69 20.59408 0.0
C 4.92 18.46366 0.0
C 6.15 16.33323 0.0
C 7.38 14.20281 0.0
C 8.61 12.07239 0.0
C 9.84 9.941971 0.0
C 11.07 7.811549 0.0
C 12.3 5.681127 0.0
C 13.53 3.550704 0.0
C 14.76 1.420282 0.0
C 15.99 -0.71014 0.0
C 17.22 -2.84056 0.0
C 18.45 -4.97098 0.0
C 19.68 -7.1014 0.0
C 20.91 -9.23183 0.0
C 22.14 -11.3622 0.0
C -6.15 41.89831 0.0
C -4.92 39.76788 0.0
C -3.69 37.63746 0.0
C -2.46 35.50704 0.0
C -1.23 33.37661 0.0
C -0.0 31.24619 0.0
C 1.23 29.11577 0.0
C 2.46 26.98535 0.0
C 3.69 24.85492 0.0
C 4.92 22.7245 0.0
C 6.15 20.59408 0.0
C 7.38 18.46366 0.0
C 8.61 16.33323 0.0
C 9.84 14.20281 0.0
C 11.07 12.07239 0.0
C 12.3 9.941971 0.0
C 13.53 7.811549 0.0
C 14.76 5.681127 0.0
C 15.99 3.550704 0.0
C 17.22 1.420282 0.0
C 18.45 -0.71014 0.0
C 19.68 -2.84056 0.0
C 20.91 -4.97098 0.0
C 22.14 -7.1014 0.0
C 23.36999 -9.23183 0.0
C -4.92 44.02873 0.0
C -3.69 41.89831 0.0
C -2.46 39.76788 0.0
C -1.23 37.63746 0.0
C -0.0 35.50704 0.0
C 1.23 33.37661 0.0
C 2.46 31.24619 0.0
C 3.69 29.11577 0.0
C 4.92 26.98535 0.0
C 6.15 24.85492 0.0
C 7.38 22.7245 0.0
C 8.61 20.59408 0.0
C 9.84 18.46366 0.0
C 11.07 16.33323 0.0
C 12.3 14.20281 0.0
C 13.53 12.07239 0.0
C 14.76 9.941971 0.0
C 15.99 7.811549 0.0
C 17.22 5.681127 0.0
C 18.45 3.550704 0.0
C 19.68 1.420282 0.0
C 20.91 -0.71014 0.0
C 22.14 -2.84056 0.0
C 23.36999 -4.97098 0.0
C 24.6 -7.1014 0.0
C -3.69 46.15915 0.0
C -2.46 44.02873 0.0
C -1.23 41.89831 0.0
C -0.0 39.76788 0.0
C 1.23 37.63746 0.0
C 2.46 35.50704 0.0
C 3.69 33.37661 0.0
C 4.92 31.24619 0.0
C 6.15 29.11577 0.0
C 7.38 26.98535 0.0
C 8.61 24.85492 0.0
C 9.84 22.7245 0.0
C 11.07 20.59408 0.0
C 12.3 18.46366 0.0
C 13.53 16.33323 0.0
C 14.76 14.20281 0.0
C 15.99 12.07239 0.0
C 17.22 9.941971 0.0
C 18.45 7.811549 0.0
C 19.68 5.681127 0.0
C 20.91 3.550704 0.0
C 22.14 1.420282 0.0
C 23.36999 -0.71014 0.0
C 24.6 -2.84056 0.0
C 25.82999 -4.97098 0.0
C -2.46 48.28958 0.0
C -1.23 46.15915 0.0
C -0.0 44.02873 0.0
C 1.23 41.89831 0.0
C 2.46 39.76788 0.0
C 3.69 37.63746 0.0
C 4.92 35.50704 0.0
C 6.15 33.37661 0.0
C 7.38 31.24619 0.0
C 8.61 29.11577 0.0
C 9.84 26.98535 0.0
C 11.07 24.85492 0.0
C 12.3 22.7245 0.0
C 13.53 20.59408 0.0
C 14.76 18.46366 0.0
C 15.99 16.33323 0.0
C 17.22 14.20281 0.0
C 18.45 12.07239 0.0
C 19.68 9.941971 0.0
C 20.91 7.811549 0.0
C 22.14 5.681127 0.0
C 23.36999 3.550704 0.0
C 24.6 1.420282 0.0
C 25.82999 -0.71014 0.0
C 27.06 -2.84056 0.0
C -1.23 50.42 0.0
C -0.0 48.28958 0.0
C 1.23 46.15915 0.0
C 2.46 44.02873 0.0
C 3.69 41.89831 0.0
C 4.92 39.76788 0.0
C 6.15 37.63746 0.0
C 7.38 35.50704 0.0
C 8.61 33.37661 0.0
C 9.84 31.24619 0.0
C 11.07 29.11577 0.0
C 12.3 26.98535 0.0
C 13.53 24.85492 0.0
C 14.76 22.7245 0.0
C 15.99 20.59408 0.0
C 17.22 18.46366 0.0
C 18.45 16.33323 0.0
C 19.68 14.20281 0.0
C 20.91 12.07239 0.0
C 22.14 9.941971 0.0
C 23.36999 7.811549 0.0
C 24.6 5.681127 0.0
C 25.82999 3.550704 0.0
C 27.06 1.420282 0.0
C 28.29 -0.71014 0.0
C -0.0 52.55042 0.0
C 1.23 50.42 0.0
C 2.46 48.28958 0.0
C 3.69 46.15915 0.0
C 4.92 44.02873 0.0
C 6.15 41.89831 0.0
C 7.38 39.76788 0.0
C 8.61 37.63746 0.0
C 9.84 35.50704 0.0
C 11.07 33.37661 0.0
C 12.3 31.24619 0.0
C 13.53 29.11577 0.0
C 14.76 26.98535 0.0
C 15.99 24.85492 0.0
C 17.22 22.7245 0.0
C 18.45 20.59408 0.0
C 19.68 18.46366 0.0
C 20.91 16.33323 0.0
C 22.14 14.20281 0.0
C 23.36999 12.07239 0.0
C 24.6 9.941971 0.0
C 25.82999 7.811549 0.0
C 27.06 5.681127 0.0
C 28.29 3.550704 0.0
C 29.51999 1.420282 0.0
